@<TRIPOS>MOLECULE
OPC3
    3    0   1    0    1
SMALL
NO_CHARGES
****
Energy = 0

@<TRIPOS>ATOM
      1  O          0.0071    0.0100   -0.0000    O    1  WAT        0.000000
      2  H          0.9860    0.0020   -0.0000    H    1  WAT        0.000000
      3  H         -0.3116    0.9355   -0.0000    H    1  WAT        0.000000
@<TRIPOS>BOND
    1     1     2  1
    2     1     3  1

@<TRIPOS>SUBSTRUCTURE
1 ****        1 TEMP                        0 ****  **** 0 ROOT

#generated by VMD
