@<TRIPOS>MOLECULE
WAT
    3    2    1    0    0
SMALL
NO_CHARGES
****
Energy = 0

@<TRIPOS>ATOM
      1  O          0.0149    0.0208   -0.0000    O    1  WAT        0.000000
      2  H1         0.9715    0.0543    0.0000    H    1  WAT        0.000000
      3  H2        -0.2574    0.9384   -0.0000    H    1  WAT        0.000000
@<TRIPOS>BOND
    1     1     2  1
    2     1     3  1

@<TRIPOS>SUBSTRUCTURE
1 ****        1 TEMP                        0 ****  **** 0 ROOT

#generated by VMD
