@<TRIPOS>MOLECULE
WAT
    3    2    1    0    0
SMALL
NO_CHARGES
****
Energy = 0

@<TRIPOS>ATOM
      1  O         -0.0225   -0.0312    0.0000    O    1  WAT        0.000000
      2  H1         1.0442   -0.0405   -0.0000    H    1  WAT        0.000000
      3  H2        -0.3699    0.9775    0.0000    H    1  WAT        0.000000
@<TRIPOS>BOND
    1     1     2  1
    2     1     3  1

@<TRIPOS>SUBSTRUCTURE
1 ****        1 TEMP                        0 ****  **** 0 ROOT

#generated by VMD
