@<TRIPOS>MOLECULE
TIP4
    4    3    1    0    0
SMALL
NO_CHARGES
****
Energy = 0

@<TRIPOS>ATOM
      1  O         -0.0000   -0.0243    0.0000    O    1  TIP4        0.000000
      2  X0        -0.7570    0.5616    0.0000    H    1  TIP4        0.000000
      3  H          0.7570    0.5616   -0.0000    H    1  TIP4        0.000000
      4  _LP       -0.0000    0.1303    0.0000    C    1  TIP4        0.000000
@<TRIPOS>BOND
    1     1     3  1
    2     1     2  1
    3     1     4  1

@<TRIPOS>SUBSTRUCTURE
1 ****        1 TEMP                        0 ****  **** 0 ROOT

#generated by VMD
