@<TRIPOS>MOLECULE
WAT
    3    2    1    0    0
SMALL
NO_CHARGES
****
Energy = 0

@<TRIPOS>ATOM
      1  O         -0.0039   -0.0056    0.0000    O    1  WAT        0.000000
      2  H          1.0079   -0.0056    0.0000    H    1  WAT        0.000000
      3  H         -0.3190    0.9559    0.0000    H    1  WAT        0.000000
@<TRIPOS>BOND
    1     1     2  1
    2     1     3  1

@<TRIPOS>SUBSTRUCTURE
1 ****        1 TEMP                        0 ****  **** 0 ROOT

#generated by VMD
