@<TRIPOS>MOLECULE
C2OH
    4    3    1    0    0
SMALL
NO_CHARGES
****
Energy = 0

@<TRIPOS>ATOM
      1  _CH3      -0.1523    0.2266   -0.0632    C    1  C2OH       0.000000
      2  _CH2       1.3877    0.2266   -0.0632    C    1  C2OH       0.000000
      3  O          1.8650    1.4589   -0.6096    O    1  C2OH       0.000000
      4  H          1.1313    2.0456   -0.7119    H    1  C2OH       0.000000
@<TRIPOS>BOND
    1     1     2  1
    2     2     3  1
    3     3     4  1
@<TRIPOS>SUBSTRUCTURE
1 ****        1 TEMP                        0 ****  **** 0 ROOT

#generated by VMD

